Version 4
SHEET 1 100 600
WIRE -2672 -80 -2864 -80
WIRE -2528 -80 -2592 -80
WIRE -2416 -80 -2528 -80
WIRE -2864 -64 -2864 -80
WIRE -2960 -48 -3152 -48
WIRE -2912 -48 -2960 -48
WIRE -2528 -32 -2528 -80
WIRE -3152 0 -3152 -48
WIRE -2912 0 -2944 0
WIRE -2416 0 -2416 -80
WIRE -2368 0 -2416 0
WIRE -2864 96 -2864 16
WIRE -2784 96 -2864 96
WIRE -2528 96 -2528 32
WIRE -2528 96 -2576 96
WIRE -2528 144 -2528 96
WIRE -3152 160 -3152 80
WIRE -2864 160 -2864 96
WIRE -2576 160 -2576 96
WIRE -2368 160 -2416 160
WIRE -2960 176 -2960 -48
WIRE -2912 176 -2960 176
WIRE -2944 224 -2944 0
WIRE -2912 224 -2944 224
WIRE -2944 256 -2944 224
WIRE -2864 256 -2864 240
WIRE -2672 256 -2864 256
WIRE -2528 256 -2528 208
WIRE -2528 256 -2592 256
WIRE -2416 256 -2416 160
WIRE -2416 256 -2528 256
WIRE -2784 272 -2784 96
WIRE -2784 368 -2784 352
FLAG -3152 160 0
FLAG -2944 256 0
FLAG -2576 160 0
FLAG -2784 368 0
SYMBOL voltage -3152 -16 R0
WINDOW 123 33 67 Left 2
WINDOW 39 0 0 Left 0
WINDOW 0 32 17 Left 2
WINDOW 3 34 43 Left 2
SYMATTR Value2 AC 1
SYMATTR InstName Vsensor
SYMATTR Value SINE(0 1 1k)
SYMBOL res -2576 -96 R90
WINDOW 0 0 56 VBottom 2
WINDOW 3 32 56 VTop 2
SYMATTR InstName R1
SYMATTR Value 1k
SYMBOL cap -2544 -32 R0
SYMATTR InstName C1
SYMATTR Value 100p
SYMBOL e -2864 -80 R0
WINDOW 0 38 45 Left 2
WINDOW 3 42 69 Left 2
SYMATTR InstName E1
SYMATTR Value .5
SYMBOL e -2864 144 R0
WINDOW 0 40 46 Left 2
WINDOW 3 45 71 Left 2
SYMATTR InstName E2
SYMATTR Value .5
SYMBOL cap -2544 144 R0
SYMATTR InstName C2
SYMATTR Value 100p
SYMBOL res -2576 240 R90
WINDOW 0 0 56 VBottom 2
WINDOW 3 32 56 VTop 2
SYMATTR InstName R2
SYMATTR Value 1k
SYMBOL voltage -2784 256 R0
WINDOW 123 0 0 Left 0
WINDOW 39 0 0 Left 0
SYMATTR InstName Vcm
SYMATTR Value 0
TEXT -3144 496 Left 2 !.TRAN 5m ;uic
TEXT -3124 560 Left 2 ;Uncommenting uic speeds up simulation,\nbut can cause internal settling issues in\nsome models, particularly Vref models.
WIRE -2336 0 -2368 0
WIRE -2336 160 -2368 160
WIRE -1888 -144 -1888 -176
WIRE -1760 -144 -1760 -176
WIRE -1888 -32 -1888 -64
WIRE -1760 -32 -1760 -64
WIRE -1968 -16 -1968 -48
WIRE -2000 0 -2336 0
WIRE -2000 32 -2080 32
WIRE -2080 48 -2080 32
WIRE -1216 80 -1824 80
WIRE -2000 128 -2080 128
WIRE -2000 160 -2336 160
WIRE -1888 192 -1888 144
WIRE -1968 208 -1968 176
FLAG -1888 -32 0
FLAG -1888 -176 V+-1
FLAG -1760 -32 0
FLAG -1760 -176 V--1
FLAG -1968 -48 V+-1
FLAG -1968 208 V--1
FLAG -1888 192 0
SYMBOL voltage -1888 -160 R0
SYMATTR InstName VDD-1
SYMATTR Value 15
SYMBOL voltage -1760 -160 R0
SYMATTR InstName VSS-1
SYMATTR Value -15
SYMBOL Opamps\\AD8421 -1968 80 R0
SYMATTR InstName U1-1
SYMBOL res -2096 32 R0
SYMATTR InstName R1-1
SYMATTR Value 10k
WIRE -464 -208 -736 -208
WIRE -960 -144 -960 -176
WIRE -848 -144 -848 -176
WIRE -960 -32 -960 -64
WIRE -848 -32 -848 -64
WIRE -656 32 -656 -112
WIRE -736 48 -736 -208
WIRE -688 48 -688 32
WIRE -688 48 -736 48
WIRE -672 48 -688 48
WIRE -464 64 -464 -208
WIRE -464 64 -624 64
WIRE -960 80 -1216 80
WIRE -800 80 -880 80
WIRE -688 80 -800 80
WIRE -672 80 -688 80
WIRE -464 80 -464 64
WIRE -368 80 -464 80
WIRE -688 96 -688 80
WIRE -800 128 -800 80
WIRE -800 256 -800 208
WIRE -656 256 -656 96
FLAG -656 -112 Vp-2
FLAG -656 256 Vn-2
FLAG -960 -32 0
FLAG -848 -32 0
FLAG -960 -176 Vp-2
FLAG -848 -176 Vn-2
FLAG -800 256 0
FLAG -432 560 ref_connect-2
FLAG -432 560 ref-2
TEXT -656 0 Left 2 ;Schematic generator \ncould not find AD8022 \nin LTspice parts library
SYMBOL voltage -960 -160 R0
WINDOW 123 0 0 Left 0
WINDOW 39 0 0 Left 0
SYMATTR InstName VDD-2
SYMATTR Value 7
SYMBOL voltage -848 -160 R0
WINDOW 123 0 0 Left 0
WINDOW 39 0 0 Left 0
SYMATTR InstName VSS-2
SYMATTR Value -5
SYMBOL res -864 64 R90
WINDOW 0 0 56 VBottom 2
WINDOW 3 32 56 VTop 2
SYMATTR InstName R1-2
SYMATTR Value 1k
SYMBOL res -784 224 R180
WINDOW 0 36 76 Left 2
WINDOW 3 36 40 Left 2
SYMATTR InstName R2-2
SYMATTR Value 1k
WIRE -224 80 -368 80
WIRE 608 80 -224 80
WIRE -224 240 -224 80
WIRE -112 240 -224 240
WIRE 48 240 -32 240
WIRE 192 240 48 240
WIRE 336 240 272 240
WIRE 608 240 336 240
WIRE 128 496 128 352
WIRE 48 512 48 240
WIRE 96 512 96 496
WIRE 96 512 48 512
WIRE 112 512 96 512
WIRE 336 528 336 240
WIRE 336 528 160 528
WIRE 96 544 48 544
WIRE 112 544 96 544
WIRE 96 560 96 544
WIRE 48 592 48 544
WIRE 128 720 128 560
FLAG 128 352 Vp-2
FLAG 128 720 Vn-2
FLAG 48 592 0
TEXT 128 464 Left 2 ;Schematic generator \ncould not find AD8022 \nin LTspice parts library
SYMBOL res -16 224 R90
WINDOW 0 0 56 VBottom 2
WINDOW 3 32 56 VTop 2
SYMATTR InstName R5-2
SYMATTR Value 1k
SYMBOL res 288 224 R90
WINDOW 0 0 56 VBottom 2
WINDOW 3 32 56 VTop 2
SYMATTR InstName R6-2
SYMATTR Value 1k
WIRE 1344 16 1344 -48
WIRE 1712 64 1472 64
WIRE 800 80 608 80
WIRE 912 80 880 80
WIRE 1040 80 912 80
WIRE 912 96 912 80
WIRE 1712 96 1712 64
WIRE 1040 144 1040 80
WIRE 1120 144 1040 144
WIRE 912 160 912 144
WIRE 912 160 880 160
WIRE 1520 160 1472 160
WIRE 1552 160 1520 160
WIRE 880 176 880 160
WIRE 912 176 912 160
WIRE 1120 176 1040 176
WIRE 1712 208 1712 176
WIRE 800 240 608 240
WIRE 912 240 912 224
WIRE 912 240 880 240
WIRE 1040 240 1040 176
WIRE 1040 240 912 240
WIRE 1536 256 1472 256
WIRE 1344 336 1344 304
WIRE 1536 400 1536 256
WIRE 1536 512 1536 480
FLAG 1536 512 0
FLAG 1712 208 0
FLAG 1344 336 0
FLAG 1520 160 out
FLAG 880 176 0
SYMBOL voltage 1536 384 M0
WINDOW 123 0 0 Left 0
WINDOW 39 0 0 Left 0
SYMATTR InstName Vconv-3
SYMATTR Value PULSE(0 1.8 10u .2n .2n 40n 10u)
SYMBOL voltage 1712 80 R0
WINDOW 123 0 0 Left 0
WINDOW 39 0 0 Left 0
SYMATTR InstName Vdd-3
SYMATTR Value 1.8
SYMBOL res 896 64 R90
WINDOW 0 0 56 VBottom 2
WINDOW 3 32 56 VTop 2
SYMATTR InstName R1-3
SYMATTR Value 200
SYMBOL res 896 224 R90
WINDOW 0 0 56 VBottom 2
WINDOW 3 32 56 VTop 2
SYMATTR InstName R2-3
SYMATTR Value 200
SYMBOL cap 896 80 R0
WINDOW 0 40 20 Left 2
WINDOW 3 36 46 Left 2
SYMATTR InstName C1-3
SYMATTR Value 5.46n
SYMBOL cap 896 176 R0
WINDOW 0 42 19 Left 2
WINDOW 3 35 43 Left 2
SYMATTR InstName C2-3
SYMATTR Value 5.46n
SYMBOL ADC\\AD4005 1376 160 R0
SYMATTR InstName U1-3
SYMATTR SpiceLine EN_Hi_Z=1
TEXT 1392 -32 Left 2 ;
WIRE 848 -288 704 -288
WIRE 880 -288 848 -288
WIRE 1344 -288 1168 -288
WIRE 1376 -288 1344 -288
WIRE 704 -272 704 -288
WIRE 1376 -272 1376 -288
WIRE 848 -224 848 -288
WIRE 880 -224 848 -224
WIRE 1232 -224 1168 -224
WIRE 1232 -208 1232 -224
WIRE 1376 -192 1376 -208
WIRE 704 -176 704 -192
WIRE 1024 -176 1024 -192
WIRE 1232 -128 1232 -144
WIRE 1344 -48 1344 -288
FLAG 1376 -192 0
FLAG 704 -176 0
FLAG 1376 -288 ref_out
FLAG 1024 -176 0
FLAG 1232 -128 0
SYMBOL cap 1360 -272 R0
SYMATTR InstName C1ref-3
SYMATTR Value 10u
SYMBOL voltage 704 -288 R0
WINDOW 123 24 124 Left 2
WINDOW 39 0 0 Left 2
WINDOW 0 37 13 Left 2
WINDOW 3 39 41 Left 2
SYMATTR InstName Vref-3
SYMATTR Value 5.5
SYMBOL References\\LTC6655LN-5 1024 -256 R0
SYMATTR InstName U2-3
SYMBOL cap 1216 -208 R0
SYMATTR InstName C5ref-3
SYMATTR Value 10u ic=1
TEXT 1328 -352 Left 2 !.ic V(ref_out)=5
