Version 4
SHEET 1 880 680
WIRE -720 -144 -720 -176
WIRE -528 -144 -528 -160
WIRE -528 -48 -528 -64
WIRE -720 -32 -720 -64
WIRE -16 32 -96 32
WIRE 112 32 64 32
WIRE 256 32 112 32
WIRE 112 48 112 32
WIRE 464 144 464 128
WIRE 464 144 432 144
WIRE 112 160 112 128
WIRE 256 160 256 32
WIRE 304 160 256 160
WIRE 512 176 432 176
WIRE 224 192 80 192
WIRE 304 192 224 192
WIRE 496 208 432 208
WIRE -32 224 -96 224
WIRE 48 240 48 224
WIRE 80 240 80 192
WIRE 80 240 48 240
WIRE 112 240 80 240
WIRE 496 272 496 208
WIRE 640 272 496 272
WIRE 112 336 112 320
WIRE 640 368 640 352
WIRE 224 400 224 192
WIRE 288 400 224 400
WIRE 496 400 496 272
WIRE 496 400 368 400
FLAG 112 160 0
FLAG 640 368 0
FLAG -720 -32 0
FLAG -720 -176 vcc
FLAG 464 128 vcc
FLAG 512 176 0
FLAG 112 336 0
FLAG -528 -48 0
FLAG -528 -160 Vin
FLAG -96 224 vcc
FLAG -96 32 Vin
SYMBOL voltage -720 -160 R0
WINDOW 0 24 96 Left 2
WINDOW 3 24 16 Left 2
WINDOW 123 0 0 Left 0
WINDOW 39 0 0 Left 0
SYMATTR InstName V1
SYMATTR Value 6
SYMBOL res 64 208 R90
WINDOW 0 0 56 VBottom 2
WINDOW 3 32 56 VTop 2
SYMATTR InstName R1
SYMATTR Value 4.5k
SYMBOL res 128 336 R180
WINDOW 0 36 76 Left 2
WINDOW 3 36 40 Left 2
SYMATTR InstName R2
SYMATTR Value 1k
SYMBOL LMX24_LM2902 368 176 R0
SYMATTR InstName U1
SYMBOL res 80 16 R90
WINDOW 0 0 56 VBottom 2
WINDOW 3 32 56 VTop 2
SYMATTR InstName R3
SYMATTR Value 820
SYMBOL res 624 256 R0
SYMATTR InstName R4
SYMATTR Value 100k
SYMBOL res 128 144 R180
WINDOW 0 36 76 Left 2
WINDOW 3 36 40 Left 2
SYMATTR InstName R5
SYMATTR Value 820
SYMBOL voltage -528 -160 R0
WINDOW 123 0 0 Left 0
WINDOW 39 0 0 Left 0
SYMATTR InstName V2
SYMATTR Value PULSE(4.3 1.5 0 10n 10n 2m 4m)
SYMBOL res 272 416 R270
WINDOW 0 32 56 VTop 2
WINDOW 3 0 56 VBottom 2
SYMATTR InstName R6
SYMATTR Value 820
TEXT -48 424 Left 2 !.tran 20m
